/*--------------------------------*- C++ -*----------------------------------*\
| =========                 |                                                 |
| \\      /  F ield         | OpenFOAM: The Open Source CFD Toolbox           |
|  \\    /   O peration     | Version:  2.2.0                                 |
|   \\  /    A nd           | Web:      www.OpenFOAM.org                      |
|    \\/     M anipulation  |                                                 |
\*---------------------------------------------------------------------------*/
FoamFile
{
    version     2.0;
    format      ascii;
    class       polyBoundaryMesh;
    location    "constant/polyMesh";
    object      boundary;
}
// * * * * * * * * * * * * * * * * * * * * * * * * * * * * * * * * * * * * * //

6
(
    inlet
    {
        type            patch;
        physicalType    inlet;
        nFaces          30;
        startFace       92612;
    }
    top
    {
        type            patch;
        physicalType    inlet;
        nFaces          29;
        startFace       92583;
    }
    bottom
    {
        type            patch;
        physicalType    inlet;
        nFaces          30;
        startFace       92642;
    }
    outlet
    {
        type            patch;
        physicalType    outlet;
        nFaces          46;
        startFace       92537;
    }
    airfoil
    {
        type            wall;
        physicalType    wall;
        nFaces          158;
        startFace       92672;
    }
    frontAndBack
    {
        type            empty;
        physicalType    empty;
        nFaces          52962;
        startFace       39575;
    }
)

// ************************************************************************* //
