/*--------------------------------*- C++ -*----------------------------------*\
| =========                 |                                                 |
| \\      /  F ield         | OpenFOAM: The Open Source CFD Toolbox           |
|  \\    /   O peration     | Version:  2.2.0                                 |
|   \\  /    A nd           | Web:      www.OpenFOAM.org                      |
|    \\/     M anipulation  |                                                 |
\*---------------------------------------------------------------------------*/
FoamFile
{
    version     2.0;
    format      ascii;
    class       polyBoundaryMesh;
    location    "constant/polyMesh";
    object      boundary;
}
// * * * * * * * * * * * * * * * * * * * * * * * * * * * * * * * * * * * * * //

6
(
    inlet
    {
        type            patch;
        physicalType    patch;
        nFaces          62;
        startFace       367418;
    }
    outlet
    {
        type            patch;
        physicalType    patch;
        nFaces          93;
        startFace       367266;
    }
    airfoil
    {
        type            wall;
        physicalType    wall;
        nFaces          292;
        startFace       367540;
    }
    top
    {
        type            symmetryPlane;
        physicalType    symmetryPlane;
        nFaces          59;
        startFace       367359;
    }
    bottom
    {
        type            symmetryPlane;
        physicalType    symmetryPlane;
        nFaces          60;
        startFace       367480;
    }
    frontAndBack
    {
        type            empty;
        physicalType    empty;
        nFaces          210028;
        startFace       157238;
    }
)

// ************************************************************************* //
